71
Lattice="9.18446134 0.0 0.0 0.0 22.63986204 -4.15391219 0.0 0.0 29.07738533" Properties=species:S:1:pos:R:3:move_mask:L:1:tags:I:1:forces:R:3 energy=-181.54722937 free_energy=-181.54878652 pbc="T T T"
Ca       0.00000000       1.59977838      13.75983413  F        0       0.00922070      -0.03984774      -0.13657100
Ca       0.00000000      12.91970940       9.60592198  F        0      -0.00584640       0.10513732       0.25316029
Ca       2.29611534       4.05467998      11.68287816  F        0       0.00416540      -0.04916527      -0.24326890
Ca       2.29611534      15.37461100      11.68287812  F        0       0.00795100       0.14080998       0.10737948
Ca       0.00000000       7.25974389      11.68287791  F        0      -0.00765120      -0.12598242      -0.21596675
Ca       0.00000000      18.57967491       7.52896576  F        0      -0.00362350       0.04631453       0.37109445
Ca       2.29611534       9.71464549       9.60592194  F        0       0.00451358      -0.16288791       0.21598578
Ca       2.29611534      21.03457651       9.60592190  F        0      -0.01573940       0.01021786      -0.09066189
Ca       9.17763995       1.59095314      17.69283799  T        1       0.00427930       0.00517336      -0.00831388
Ca       0.00000000      12.91970940      13.75983409  F        0      -0.00178619       0.01378475      -0.09461209
Ca       2.29611534       4.05467998      15.83679027  F        0       0.04894779      -0.04259262      -0.24580826
Ca       2.29066491      15.28372395      15.68350401  T        1       0.00004410       0.00191781      -0.00381289
Ca       9.18348026       7.34652543      15.63808273  T        1      -0.00003142       0.00204642      -0.00520215
Ca       0.00000000      18.57967491      11.68287816  F        0       0.04752662       0.01193114      -0.07434922
Ca       2.29611534       9.71464549      13.75983405  F        0       0.00186341       0.10024743      -0.03993231
Ca       2.54997008      20.99736767      13.92455556  T        1       0.00697949       0.00195999       0.00150048
Ca       4.59223067       1.59977838      13.75983413  F        0      -0.00900729      -0.00303119      -0.07298596
Ca       4.59223067      12.91970940       9.60592198  F        0       0.00681525       0.10310986       0.25537594
Ca       6.88834601       4.05467998      11.68287816  F        0      -0.00312620      -0.04123759      -0.24157313
Ca       6.88834601      15.37461100      11.68287812  F        0      -0.00076601       0.00350352      -0.00218738
Ca       4.59223067       7.25974389      11.68287791  F        0       0.00744801      -0.11715577      -0.21893883
Ca       4.59223067      18.57967491       7.52896576  F        0       0.00492261       0.05129770       0.37156704
Ca       6.88834601       9.71464549       9.60592194  F        0      -0.00434138      -0.17056091       0.20986348
Ca       6.88834601      21.03457651       9.60592190  F        0       0.01735075       0.00589343      -0.11959717
Ca       4.58193103       1.46827135      17.85365541  T        1       0.00772535      -0.03199615       0.00942481
Ca       4.59223067      12.91970940      13.75983409  F        0       0.00115113       0.01192740      -0.09283233
Ca       6.88834601       4.05467998      15.83679027  F        0      -0.05392536      -0.03410737      -0.24294258
Ca       6.88545014      15.25889504      15.65682260  T        1       0.00241189      -0.00265286       0.00082346
Ca       4.59315922       7.34715006      15.63644330  T        1       0.00068649       0.00196025      -0.00574679
Ca       4.59223067      18.57967491      11.68287816  F        0      -0.05739187      -0.18859071      -0.25654123
Ca       6.88834601       9.71464549      13.75983405  F        0      -0.00065885       0.09416392      -0.04170983
Ca       6.61873210      21.03855048      13.78417394  T        1      -0.00884020      -0.01212208       0.00672012
Cu       2.29611534       0.77843498      11.68287816  F        0       0.00253357      -0.06822832       0.27710408
Cu       2.29611534      12.09836600      11.68287812  F        0      -0.00015716       0.00167434      -0.23480104
Cu       2.29611534       6.43840049       9.60592194  F        0       0.00254149       0.02220826       0.29485146
Cu       2.29611534      17.75833151       9.60592190  F        0      -0.00493935       0.10504008      -0.20621981
Cu       2.29611534       0.77843498      15.83679027  F        0       0.02200438       0.00892096       0.24827803
Cu       2.29701918      12.15035075      15.62754869  T        1      -0.00024007       0.00051580       0.00052823
Cu       2.29611534       6.43840049      13.75983405  F        0       0.00097979       0.03419387       0.17951296
Cu       2.32833957      17.85936620      13.98529752  T        1       0.00144531       0.00286364      -0.00042594
Cu       6.88834601       0.77843498      11.68287816  F        0       0.00078077      -0.07885905       0.29091789
Cu       6.88834601      12.09836600      11.68287812  F        0       0.00130967       0.00302923      -0.23332912
Cu       6.88834601       6.43840049       9.60592194  F        0      -0.00149534       0.01738251       0.29816315
Cu       6.88834601      17.75833151       9.60592190  F        0       0.00812374       0.08159352      -0.20373314
Cu       6.88834601       0.77843498      15.83679027  F        0      -0.03190512       0.03631167       0.22479594
Cu       6.88928190      12.13354857      15.62561480  T        1      -0.00046895      -0.00027809       0.00141176
Cu       6.88834601       6.43840049      13.75983405  F        0       0.00057261       0.03224892       0.17324584
Cu       6.87812517      17.71723110      13.65923797  T        1       0.00118545      -0.00189450      -0.00054446
Ag       0.00000000       4.88703790       9.60592198  F        0       0.00124016       0.23759765       0.06068878
Ag       0.00000000      16.20696892       9.60592194  F        0      -0.02736723       0.00853275      -0.04184686
Ag       0.00000000      10.54700341      11.68287787  F        0       0.00325301      -0.02198499      -0.26165503
Ag       0.00000000      21.86693443       7.52896572  F        0       0.00200070       0.01770834      -0.01837784
Ag       0.00000000       4.88703790      13.75983409  F        0      -0.00025968      -0.01359256       0.15373212
Ag       0.01753167      16.23838218      13.82017581  T        1       0.00023389      -0.00399072       0.00066686
Ag       0.00680367      10.61766016      15.85136871  T        1       0.00246147      -0.00191556      -0.00259697
Ag       0.00000000      21.86693443      11.68287812  F        0       0.02225215      -0.22264907       0.27549773
Ag       4.59223067       4.88703790       9.60592198  F        0      -0.00112990       0.24093993       0.06104392
Ag       4.59223067      16.20696892       9.60592194  F        0       0.02608445       0.00348787      -0.04704701
Ag       4.59223067      10.54700341      11.68287787  F        0      -0.00328865      -0.02422985      -0.26359866
Ag       4.59223067      21.86693443       7.52896572  F        0      -0.00208111       0.01257805       0.01821392
Ag       4.59223067       4.88703790      13.75983409  F        0      -0.00082593      -0.02454262       0.14815979
Ag       4.57866733      16.22220623      13.82969226  T        1       0.00215942      -0.00267830      -0.00309230
Ag       4.58642150      10.61732735      15.85150247  T        1      -0.00057374       0.00205600      -0.00080044
Ag       4.59223067      21.86693443      11.68287812  F        0      -0.09251602      -0.13798597      -0.46726406
C        1.30185946      19.36114296      16.43787420  T        2       0.10570534       0.04438141       0.02126161
C        2.36653517      18.99328301      15.66234078  T        2      -0.06282660       0.00596839       0.01364059
H        1.39650304      19.70137209      17.48632911  T        2      -0.00284004      -0.01017139      -0.08486297
H        0.26855034      19.29583420      16.06379907  T        2      -0.00025229       0.01472551      -0.01119822
H        4.62397042      22.04645541      15.86336363  T        2       0.00500075      -0.00794591      -0.07065975
H        3.34254960      19.08643970      16.18832954  T        2       0.00455017      -0.00907904      -0.00724158
O        4.61136328      22.03688418      14.88235297  T        2       0.00548130       0.00660119       0.06823976